    55
       -115.33640259
C           2.01013358050184   -1.91294010293136    0.00672549647704
C           0.66092168990141    2.71471147723331    0.00248807127458
C          -2.67162221265937   -0.77152635594955    0.00596116121722
C          -2.66969199812263    0.78900912195463    0.00378854413682
C           0.65970047661705   -2.69497629814197    0.00810257973153
C           2.01238722984686    1.93398333243498    0.00330000584792
N           1.96636573639624   -1.17378202395092   -1.23008509745637
N           0.04434724798381    2.31502076185360   -1.23867013706472
N          -2.08158551381305   -1.13322305255255    1.26057339156365
N           2.03092088795697   -1.22200752479069    1.26173389307036
N           0.04988190089303    2.38422485470406    1.25540185219667
N          -2.01497535858370   -1.10833957813181   -1.23278624835276
N          -2.00671298155277    1.12011958692563   -1.23293418542529
N           0.04083340689220   -2.29568666011807   -1.23136324933157
N           2.02974787533787    1.23977784080485    1.25620970788667
N          -2.08261631364805    1.15340854545152    1.25882036030423
N           0.05042860551648   -2.36402934384988    1.26216205976849
N           1.97514063254698    1.19959021988769   -1.23745595297061
C          -1.81451944792776    0.00544879930149   -2.02074231713584
C           0.90575708934300   -1.56515097229501   -2.01877471009926
C           0.87231210791637    1.52259165428244    1.99645433012790
C          -1.74993851381671    0.01091547179300    2.00105744115784
C           0.87637225040542   -1.50786969261751    2.00436439992490
C           0.91129234428333    1.58588050908140   -2.02500362869992
O          -1.59720641659867    0.00471975999193   -3.20238870835705
O           0.79753418621748   -1.37773685309917   -3.20055443562710
O           0.75944665628270    1.32785318631762    3.17333417892370
O          -1.52530618833602    0.01120932000215    3.17794627403376
O           0.76460032602998   -1.31391148939078    3.18132025993868
O           0.80227369783258    1.39593903842182   -3.20633256160905
C          -1.35128069605784    2.35072393613379   -1.58515568313236
C          -1.35453127507414   -2.33853506133858   -1.57790242402541
C           2.71725814117026    0.01031150461295    1.58272619045049
C          -1.35949925317532    2.36435852335878    1.57955863559907
C          -1.35889546894199   -2.34271601033579    1.58666378508292
C           2.70470254937010    0.00897316816920   -1.58242173660338
H          -1.84618035617401    3.20313391686701   -1.11631152820497
H          -1.84638836919742   -3.18960522657463   -1.10365801893304
H           3.71652044380465    0.00950065944655    1.14251342316842
H          -1.85921149015102    3.22876114387371    1.13757149638639
H          -1.85882291249472   -3.20935716809858    1.14926750005753
H           3.68972796127724    0.00711828164728   -1.11224719212193
H           2.87420964292103   -2.60372069421210   -0.03095473454556
H           0.82964182065982    3.80808744324207   -0.03111479032015
H          -3.70304300814677   -1.17171028475434   -0.02785131653281
H          -3.69989630945922    1.19191477021652   -0.03506795523986
H           0.82901844310592   -3.78832682356311   -0.02465358958194
H           2.87539238766199    2.62624634114106   -0.02972152087581
H          -1.38839463212769    2.41065027491338   -2.68041752225145
H          -1.39227867846107   -2.40531393341561   -2.67268136658722
H           2.76407787923911    0.01235920480200    2.67758082926542
H          -1.38272362374234    2.40737554135843    2.67430550532415
H          -1.38133308739054   -2.38023237896298    2.68167295518359
H           2.77654563845702    0.00595006773411   -2.67758571105481
F          -0.00082873071592    0.01080927111603    0.83323199404028
